# generated using pymatgen
data_AlF3
_symmetry_space_group_name_H-M   'P 1'
_cell_length_a   5.14593377
_cell_length_b   5.14593377
_cell_length_c   6.30552251
_cell_angle_alpha   90.00000000
_cell_angle_beta   90.00000000
_cell_angle_gamma   120.00000005
_symmetry_Int_Tables_number   1
_chemical_formula_structural   AlF3
_chemical_formula_sum   'Al3 F9'
_cell_volume   144.60393018
_cell_formula_units_Z   3
loop_
 _symmetry_equiv_pos_site_id
 _symmetry_equiv_pos_as_xyz
  1  'x, y, z'
loop_
 _atom_site_type_symbol
 _atom_site_label
 _atom_site_symmetry_multiplicity
 _atom_site_fract_x
 _atom_site_fract_y
 _atom_site_fract_z
 _atom_site_occupancy
  F  F0  1  0.66666605  0.83273569  0.83330491  1
  F  F1  1  0.16726431  0.83393036  0.83330491  1
  F  F2  1  0.16606964  0.33333395  0.83330491  1
  F  F3  1  0.49905446  0.49905446  0.50000000  1
  F  F4  1  0.50094554  0.00000000  0.50000000  1
  F  F5  1  0.00000000  0.50094554  0.50000000  1
  F  F6  1  0.83273569  0.66666605  0.16669509  1
  F  F7  1  0.33333395  0.16606964  0.16669509  1
  F  F8  1  0.83393036  0.16726431  0.16669509  1
  Al  Al9  1  0.66666667  0.33333333  0.33333211  1
  Al  Al10  1  0.33333333  0.66666667  0.66666789  1
  Al  Al11  1  0.00000000  0.00000000  0.00000000  1
