# generated using pymatgen
data_CsCaH3
_symmetry_space_group_name_H-M   'P 1'
_cell_length_a   4.63203371
_cell_length_b   4.63202986
_cell_length_c   4.63203035
_cell_angle_alpha   90.00014064
_cell_angle_beta   90.00016699
_cell_angle_gamma   90.00027089
_symmetry_Int_Tables_number   1
_chemical_formula_structural   CsCaH3
_chemical_formula_sum   'Cs1 Ca1 H3'
_cell_volume   99.38353907
_cell_formula_units_Z   1
loop_
 _symmetry_equiv_pos_site_id
 _symmetry_equiv_pos_as_xyz
  1  'x, y, z'
loop_
 _atom_site_type_symbol
 _atom_site_label
 _atom_site_symmetry_multiplicity
 _atom_site_fract_x
 _atom_site_fract_y
 _atom_site_fract_z
 _atom_site_occupancy
  Cs  Cs0  1  0.49999909  0.50000267  0.49999836  1
  Ca  Ca1  1  -0.00000205  0.00000050  -0.00000095  1
  H  H2  1  0.00000121  -0.00000146  0.50000051  1
  H  H3  1  0.00000127  0.49999951  0.00000079  1
  H  H4  1  0.50000047  -0.00000121  0.00000130  1
