# generated using pymatgen
data_GePtSe
_symmetry_space_group_name_H-M   'P 1'
_cell_length_a   6.07660116
_cell_length_b   6.10666747
_cell_length_c   6.15643453
_cell_angle_alpha   90.00000000
_cell_angle_beta   90.00000000
_cell_angle_gamma   90.00000000
_symmetry_Int_Tables_number   1
_chemical_formula_structural   GePtSe
_chemical_formula_sum   'Ge4 Pt4 Se4'
_cell_volume   228.45163433
_cell_formula_units_Z   4
loop_
 _symmetry_equiv_pos_site_id
 _symmetry_equiv_pos_as_xyz
  1  'x, y, z'
loop_
 _atom_site_type_symbol
 _atom_site_label
 _atom_site_symmetry_multiplicity
 _atom_site_fract_x
 _atom_site_fract_y
 _atom_site_fract_z
 _atom_site_occupancy
  Ge  Ge0  1  0.88068014  0.88114550  0.37510912  1
  Ge  Ge1  1  0.88068014  0.38114550  0.62489088  1
  Ge  Ge2  1  0.38068014  0.61885450  0.37510912  1
  Ge  Ge3  1  0.38068014  0.11885450  0.62489088  1
  Se  Se4  1  0.11478989  0.61690678  0.86330754  1
  Se  Se5  1  0.11478989  0.11690678  0.13669246  1
  Se  Se6  1  0.61478989  0.88309322  0.86330754  1
  Se  Se7  1  0.61478989  0.38309322  0.13669246  1
  Pt  Pt8  1  0.00262997  0.50856539  0.25911007  1
  Pt  Pt9  1  0.50262997  0.49143461  0.74088993  1
  Pt  Pt10  1  0.50262997  0.99143461  0.25911007  1
  Pt  Pt11  1  0.00262997  0.00856539  0.74088993  1
