# generated using pymatgen
data_K2NaAlF6
_symmetry_space_group_name_H-M   'P 1'
_cell_length_a   8.25400130
_cell_length_b   8.25400130
_cell_length_c   8.25400130
_cell_angle_alpha   90.00000000
_cell_angle_beta   90.00000000
_cell_angle_gamma   90.00000000
_symmetry_Int_Tables_number   1
_chemical_formula_structural   K2NaAlF6
_chemical_formula_sum   'K8 Na4 Al4 F24'
_cell_volume   562.33303677
_cell_formula_units_Z   4
loop_
 _symmetry_equiv_pos_site_id
 _symmetry_equiv_pos_as_xyz
  1  'x, y, z'
loop_
 _atom_site_type_symbol
 _atom_site_label
 _atom_site_symmetry_multiplicity
 _atom_site_fract_x
 _atom_site_fract_y
 _atom_site_fract_z
 _atom_site_occupancy
  K  K0  1  0.24861855  0.24861855  0.24861855  1
  K  K1  1  0.75138145  0.75138145  0.75138145  1
  K  K2  1  0.75138145  0.74861855  0.25138145  1
  K  K3  1  0.25138145  0.74861855  0.24861855  1
  K  K4  1  0.74861855  0.24861855  0.25138145  1
  K  K5  1  0.24861855  0.25138145  0.74861855  1
  K  K6  1  0.74861855  0.25138145  0.75138145  1
  K  K7  1  0.25138145  0.75138145  0.74861855  1
  Na  Na8  1  0.00000000  0.00000000  0.50000000  1
  Na  Na9  1  0.50000000  0.50000000  0.50000000  1
  Na  Na10  1  0.00000000  0.50000000  0.00000000  1
  Na  Na11  1  0.50000000  0.00000000  0.00000000  1
  Al  Al12  1  0.50000000  0.00000000  0.50000000  1
  Al  Al13  1  0.50000000  0.50000000  0.00000000  1
  Al  Al14  1  0.00000000  0.00000000  0.00000000  1
  Al  Al15  1  0.00000000  0.50000000  0.50000000  1
  F  F16  1  0.50220769  0.72273996  0.00215633  1
  F  F17  1  0.00220769  0.77726004  0.99784367  1
  F  F18  1  0.99784367  0.49779231  0.27726004  1
  F  F19  1  0.72273996  0.00215633  0.50220769  1
  F  F20  1  0.00220769  0.72273996  0.49784367  1
  F  F21  1  0.49784367  0.00220769  0.72273996  1
  F  F22  1  0.99779231  0.22273996  0.00215633  1
  F  F23  1  0.77726004  0.99784367  0.00220769  1
  F  F24  1  0.00215633  0.50220769  0.72273996  1
  F  F25  1  0.49779231  0.22273996  0.49784367  1
  F  F26  1  0.49779231  0.27726004  0.99784367  1
  F  F27  1  0.50220769  0.77726004  0.50215633  1
  F  F28  1  0.50215633  0.99779231  0.27726004  1
  F  F29  1  0.77726004  0.50215633  0.50220769  1
  F  F30  1  0.22273996  0.49784367  0.49779231  1
  F  F31  1  0.99779231  0.27726004  0.50215633  1
  F  F32  1  0.27726004  0.50215633  0.99779231  1
  F  F33  1  0.22273996  0.00215633  0.99779231  1
  F  F34  1  0.27726004  0.99784367  0.49779231  1
  F  F35  1  0.50215633  0.50220769  0.77726004  1
  F  F36  1  0.72273996  0.49784367  0.00220769  1
  F  F37  1  0.99784367  0.00220769  0.77726004  1
  F  F38  1  0.00215633  0.99779231  0.22273996  1
  F  F39  1  0.49784367  0.49779231  0.22273996  1
