# generated using pymatgen
data_NaNbO3
_symmetry_space_group_name_H-M   'P 1'
_cell_length_a   7.95414469
_cell_length_b   7.95414429
_cell_length_c   7.95414475
_cell_angle_alpha   89.01599908
_cell_angle_beta   89.01599907
_cell_angle_gamma   89.01599817
_symmetry_Int_Tables_number   1
_chemical_formula_structural   NaNbO3
_chemical_formula_sum   'Na8 Nb8 O24'
_cell_volume   503.02600284
_cell_formula_units_Z   8
loop_
 _symmetry_equiv_pos_site_id
 _symmetry_equiv_pos_as_xyz
  1  'x, y, z'
loop_
 _atom_site_type_symbol
 _atom_site_label
 _atom_site_symmetry_multiplicity
 _atom_site_fract_x
 _atom_site_fract_y
 _atom_site_fract_z
 _atom_site_occupancy
  Na  Na0  1  0.49972903  -0.00027097  -0.00027097  1
  Na  Na1  1  0.49972903  0.49972903  0.49972903  1
  Na  Na2  1  -0.00027097  -0.00027097  -0.00027097  1
  Na  Na3  1  -0.00027097  0.49972903  -0.00027097  1
  Na  Na4  1  0.49972903  -0.00027097  0.49972903  1
  Na  Na5  1  -0.00027097  -0.00027097  0.49972903  1
  Na  Na6  1  -0.00027097  0.49972903  0.49972903  1
  Na  Na7  1  0.49972903  0.49972903  -0.00027097  1
  Nb  Nb8  1  0.25880567  0.75880567  0.25880567  1
  Nb  Nb9  1  0.25880567  0.25880567  0.75880567  1
  Nb  Nb10  1  0.75880567  0.25880567  0.75880567  1
  Nb  Nb11  1  0.75880567  0.25880567  0.25880567  1
  Nb  Nb12  1  0.25880567  0.75880567  0.75880567  1
  Nb  Nb13  1  0.25880567  0.25880567  0.25880567  1
  Nb  Nb14  1  0.75880567  0.75880567  0.25880567  1
  Nb  Nb15  1  0.75880567  0.75880567  0.75880567  1
  O  O16  1  0.30995181  0.02405529  0.24245819  1
  O  O17  1  0.80995181  0.02405529  0.74245819  1
  O  O18  1  0.52405529  0.80995181  0.74245819  1
  O  O19  1  0.24245819  0.30995181  0.02405529  1
  O  O20  1  0.24245819  0.80995181  0.52405529  1
  O  O21  1  0.52405529  0.74245819  0.30995181  1
  O  O22  1  0.02405529  0.74245819  0.80995181  1
  O  O23  1  0.30995181  0.74245819  0.02405529  1
  O  O24  1  0.80995181  0.74245819  0.52405529  1
  O  O25  1  0.52405529  0.30995181  0.24245819  1
  O  O26  1  0.24245819  0.52405529  0.30995181  1
  O  O27  1  0.52405529  0.24245819  0.80995181  1
  O  O28  1  0.80995181  0.24245819  0.02405529  1
  O  O29  1  0.02405529  0.30995181  0.74245819  1
  O  O30  1  0.74245819  0.80995181  0.02405529  1
  O  O31  1  0.02405529  0.80995181  0.24245819  1
  O  O32  1  0.30995181  0.24245819  0.52405529  1
  O  O33  1  0.74245819  0.52405529  0.80995181  1
  O  O34  1  0.74245819  0.02405529  0.30995181  1
  O  O35  1  0.80995181  0.52405529  0.24245819  1
  O  O36  1  0.02405529  0.24245819  0.30995181  1
  O  O37  1  0.74245819  0.30995181  0.52405529  1
  O  O38  1  0.30995181  0.52405529  0.74245819  1
  O  O39  1  0.24245819  0.02405529  0.80995181  1
