# generated using pymatgen
data_Rb2Pd3S4
_symmetry_space_group_name_H-M   'P 1'
_cell_length_a   6.23648102
_cell_length_b   6.23589686
_cell_length_c   7.58133306
_cell_angle_alpha   102.40959149
_cell_angle_beta   102.41293075
_cell_angle_gamma   118.51742015
_symmetry_Int_Tables_number   1
_chemical_formula_structural   Rb2Pd3S4
_chemical_formula_sum   'Rb2 Pd3 S4'
_cell_volume   235.05278412
_cell_formula_units_Z   1
loop_
 _symmetry_equiv_pos_site_id
 _symmetry_equiv_pos_as_xyz
  1  'x, y, z'
loop_
 _atom_site_type_symbol
 _atom_site_label
 _atom_site_symmetry_multiplicity
 _atom_site_fract_x
 _atom_site_fract_y
 _atom_site_fract_z
 _atom_site_occupancy
  S  S0  1  0.22022673  0.55712556  0.77737343  1
  S  S1  1  0.44285331  0.77975213  0.22262657  1
  S  S2  1  0.55714669  0.22024787  0.77737343  1
  S  S3  1  0.77977327  0.44287444  0.22262657  1
  Rb  Rb4  1  0.84265035  0.84265035  0.68530069  1
  Rb  Rb5  1  0.15734965  0.15734965  0.31469931  1
  Pd  Pd6  1  0.50000000  0.00000000  0.00000000  1
  Pd  Pd7  1  0.50000000  0.50000000  0.00000000  1
  Pd  Pd8  1  0.00000000  0.50000000  0.00000000  1
