# generated using pymatgen
data_RbBe2BO3F2
_symmetry_space_group_name_H-M   'P 1'
_cell_length_a   4.47228888
_cell_length_b   4.47242855
_cell_length_c   7.29177959
_cell_angle_alpha   107.81839624
_cell_angle_beta   90.00000000
_cell_angle_gamma   119.99896698
_symmetry_Int_Tables_number   1
_chemical_formula_structural   RbBe2BO3F2
_chemical_formula_sum   'Rb1 Be2 B1 O3 F2'
_cell_volume   118.16371398
_cell_formula_units_Z   1
loop_
 _symmetry_equiv_pos_site_id
 _symmetry_equiv_pos_as_xyz
  1  'x, y, z'
loop_
 _atom_site_type_symbol
 _atom_site_label
 _atom_site_symmetry_multiplicity
 _atom_site_fract_x
 _atom_site_fract_y
 _atom_site_fract_z
 _atom_site_occupancy
  Be  Be0  1  0.81058053  0.61113328  0.41666774  1
  Be  Be1  1  0.19944725  0.38886672  0.58333226  1
  B  B2  1  0.50520398  0.00000000  0.50000000  1
  O  O3  1  0.81395156  0.00000000  0.50000000  1
  O  O4  1  0.19638754  0.69099054  0.49958304  1
  O  O5  1  0.50539700  0.30900946  0.50041696  1
  F  F6  1  0.73412698  0.45975221  0.18981527  1
  F  F7  1  0.27437477  0.54024779  0.81018473  1
  Rb  Rb8  1  0.00453037  0.00000000  0.00000000  1
